%chk=bglb_theozyme.chk
# hf/3-21g geom=connectivity

Title Card Required

0 2
 C(PDBName=CD,ResName=GLU,ResNum=164_A)              0   64.20700000   33.40800000   39.95400000 L H 54
 O(PDBName=OE1,ResName=GLU,ResNum=164_A)             0   63.38768710   32.60241524   39.58194951 L
 C(PDBName=CG,ResName=TYR,ResNum=295_A)              0   67.17800000   29.11100000   33.01800000 L H 62
 C(PDBName=CD1,ResName=TYR,ResNum=295_A)             0   66.59300000   29.44300000   34.23100000 L
 C(PDBName=CD2,ResName=TYR,ResNum=295_A)             0   68.55000000   29.22700000   32.85500000 L
 C(PDBName=CE1,ResName=TYR,ResNum=295_A)             0   67.37800000   29.89100000   35.27700000 L
 C(PDBName=CE2,ResName=TYR,ResNum=295_A)             0   69.33500000   29.67400000   33.90000000 L
 C(PDBName=CZ,ResName=TYR,ResNum=295_A)              0   68.75300000   30.00500000   35.10600000 L
 O(PDBName=OH,ResName=TYR,ResNum=295_A)              0   69.53500000   30.45000000   36.14700000 L
 H(PDBName=HD1,ResName=TYR,ResNum=295_A)             0   65.51400000   29.35200000   34.35900000 L
 H(PDBName=HD2,ResName=TYR,ResNum=295_A)             0   69.01000000   28.96500000   31.90100000 L
 H(PDBName=HE1,ResName=TYR,ResNum=295_A)             0   66.91900000   30.15300000   36.22900000 L
 H(PDBName=HE2,ResName=TYR,ResNum=295_A)             0   70.41400000   29.76600000   33.77200000 L
 H(PDBName=HH,ResName=TYR,ResNum=295_A)              0   69.00000000   30.51800000   36.94200000 L
 C(PDBName=CD,ResName=GLU,ResNum=353_A)              0   68.55200000   32.73900000   37.06600000 L H 58
 O(PDBName=OE1,ResName=GLU,ResNum=353_A)             0   67.45646751   32.65179905   36.56584846 L
 O(PDBName=OE2,ResName=GLU,ResNum=353_A)             0   68.81753312   32.30019812   38.16014993 L
 C(PDBName=C1,ResName=LG1,ResNum=1_X)                0   69.10500000   31.05000000   40.88800000 H
 N(PDBName=N1,ResName=LG1,ResNum=1_X)                0   62.89000000   26.46600000   37.32400000 H
 O(PDBName=O1,ResName=LG1,ResNum=1_X)                0   67.85600000   30.08000000   38.42700000 H
 C(PDBName=C2,ResName=LG1,ResNum=1_X)                0   69.20300000   29.56100000   40.55100000 H
 O(PDBName=O2,ResName=LG1,ResNum=1_X)                0   66.09400000   30.25100000   39.82000000 H
 C(PDBName=C3,ResName=LG1,ResNum=1_X)                0   67.77800000   31.63900000   40.41200000 H
 O(PDBName=O3,ResName=LG1,ResNum=1_X)                0   69.28300000   31.27900000   42.29000000 H
 C(PDBName=C4,ResName=LG1,ResNum=1_X)                0   68.84700000   29.31200000   39.08300000 H
 O(PDBName=O4,ResName=LG1,ResNum=1_X)                0   70.50000000   29.07200000   40.90300000 H
 C(PDBName=C5,ResName=LG1,ResNum=1_X)                0   67.17600000   31.09600000   39.12600000 H
 O(PDBName=O5,ResName=LG1,ResNum=1_X)                0   67.98100000   33.06500000   40.25500000 H
 C(PDBName=C6,ResName=LG1,ResNum=1_X)                0   68.51200000   27.82500000   38.86800000 H
 O(PDBName=O6,ResName=LG1,ResNum=1_X)                0   68.00200000   27.62600000   37.54900000 H
 C(PDBName=C7,ResName=LG1,ResNum=1_X)                0   65.32600000   29.37200000   39.10800000 H
 O(PDBName=O7,ResName=LG1,ResNum=1_X)                0   62.40000000   26.67600000   36.08700000 H
 C(PDBName=C8,ResName=LG1,ResNum=1_X)                0   64.84700000   29.55200000   37.81200000 H
 O(PDBName=O8,ResName=LG1,ResNum=1_X)                0   62.57600000   25.33700000   37.98500000 H
 C(PDBName=C9,ResName=LG1,ResNum=1_X)                0   64.95900000   28.22400000   39.81500000 H
 C(PDBName=C10,ResName=LG1,ResNum=1_X)               0   64.03700000   28.57600000   37.21600000 H
 C(PDBName=C11,ResName=LG1,ResNum=1_X)               0   64.15100000   27.24300000   39.22600000 H
 C(PDBName=C12,ResName=LG1,ResNum=1_X)               0   63.68200000   27.40900000   37.91500000 H
 H(PDBName=H1,ResName=LG1,ResNum=1_X)                0   69.93800000   31.57600000   40.40300000 H
 H(PDBName=H2,ResName=LG1,ResNum=1_X)                0   68.49400000   29.02800000   41.19800000 H
 H(PDBName=H3,ResName=LG1,ResNum=1_X)                0   67.06300000   31.57700000   41.24500000 H
 H(PDBName=H4,ResName=LG1,ResNum=1_X)                0   69.75600000   29.49800000   38.49600000 H
 H(PDBName=H5,ResName=LG1,ResNum=1_X)                0   66.42400000   31.64700000   38.55600000 H
 H(PDBName=H6,ResName=LG1,ResNum=1_X)                0   67.74200000   27.48900000   39.57000000 H
 H(PDBName=H7,ResName=LG1,ResNum=1_X)                0   69.39600000   27.19000000   38.98800000 H
 H(PDBName=H8,ResName=LG1,ResNum=1_X)                0   68.75600000   32.07500000   42.50600000 H
 H(PDBName=H9,ResName=LG1,ResNum=1_X)                0   70.56100000   28.13300000   40.64900000 H
 H(PDBName=H10,ResName=LG1,ResNum=1_X)               0   68.75500000   33.15700000   39.66500000 H
 H(PDBName=H11,ResName=LG1,ResNum=1_X)               0   68.72500000   27.88100000   36.94500000 H
 H(PDBName=H12,ResName=LG1,ResNum=1_X)               0   65.07700000   30.44400000   37.23500000 H
 H(PDBName=H13,ResName=LG1,ResNum=1_X)               0   65.30900000   28.08600000   40.83700000 H
 H(PDBName=H14,ResName=LG1,ResNum=1_X)               0   63.68000000   28.74000000   36.19800000 H
 H(PDBName=H15,ResName=LG1,ResNum=1_X)               0   63.89500000   26.36200000   39.81300000 H
 C                                                   0   63.73092166   34.83009206   40.30414794 H
 H                                                   0   63.57348622   34.90366712   41.35994185 H
 H                                                   0   64.47409998   35.53900446   40.00409926 H
 H                                                   0   62.81439720   35.03568114   39.79168717 H
 C                                                   0   69.66672085   33.44389701   36.27094175 H
 H                                                   0   70.26799042   34.02513187   36.93843028 H
 H                                                   0   70.27780873   32.71090506   35.78700537 H
 H                                                   0   69.22887688   34.08542002   35.53497919 H
 C                                                   0   66.30363972   28.61223803   31.85252559 H
 H                                                   0   66.22135429   27.54642335   31.89908927 H
 H                                                   0   65.32942260   29.04870053   31.92533687 H
 H                                                   0   66.75263250   28.89504796   30.92337327 H
 O                                                   0   65.43130213   33.14194126   40.07176073 H
 H                                                   0   65.58020896   32.67744435   40.89860375 H

 1 2 2.0 54 1.0 66 2.0
 2
 3 4 1.5 5 1.5 62 1.0
 4 6 2.0 10 1.0
 5 7 2.0 11 1.0
 6 8 1.5 12 1.0
 7 8 2.0 13 1.0
 8 9 1.0
 9 14 1.0
 10
 11
 12
 13
 14
 15 16 2.0 17 2.0 58 1.0
 16
 17
 18 21 1.0 23 1.0 24 1.0 39 1.0
 19 32 1.0 34 1.0 38 1.5
 20 25 1.0 27 1.0
 21 25 1.0 26 1.0 40 1.0
 22 27 1.0 31 1.0
 23 27 1.0 28 1.0 41 1.0
 24 46 1.0
 25 29 1.0 42 1.0
 26 47 1.0
 27 43 1.0
 28 48 1.0
 29 30 1.0 44 1.0 45 1.0
 30 49 1.0
 31 33 1.5 35 1.5
 32
 33 36 1.5 50 1.0
 34
 35 37 1.5 51 1.0
 36 38 1.5 52 1.0
 37 38 1.5 53 1.0
 38
 39
 40
 41
 42
 43
 44
 45
 46
 47
 48
 49
 50
 51
 52
 53
 54 55 1.0 56 1.0 57 1.0
 55
 56
 57
 58 59 1.0 60 1.0 61 1.0
 59
 60
 61
 62 63 1.0 64 1.0 65 1.0
 63
 64
 65
 66 67 1.0
 67


